
  xtb     07282115263D
 xtb: 6.4.1 (8725663466f2cbe4bcfeb424dbeae13262b6703d)
 22 22  0     0  0            999 V2000
   -0.7713   -2.2628   -0.6219 O   0  0  0  0  0  0  0  0  0  0  0  0
   -1.8597    1.0979   -0.2956 O   0  0  0  0  0  0  0  0  0  0  0  0
   -2.2624   -0.7183    0.9653 O   0  0  0  0  0  0  0  0  0  0  0  0
   -0.6512   -0.8781   -0.7976 C   0  0  0  0  0  0  0  0  0  0  0  0
    0.7033   -0.3249   -0.3763 C   0  0  0  0  0  0  0  0  0  0  0  0
    1.1086    0.9226   -0.8341 C   0  0  0  0  0  0  0  0  0  0  0  0
    1.5254   -1.0436    0.4780 C   0  0  0  0  0  0  0  0  0  0  0  0
   -1.6895   -0.1564    0.0533 C   0  0  0  0  0  0  0  0  0  0  0  0
    2.3265    1.4441   -0.4366 C   0  0  0  0  0  0  0  0  0  0  0  0
    2.7466   -0.5206    0.8694 C   0  0  0  0  0  0  0  0  0  0  0  0
    3.1475    0.7241    0.4166 C   0  0  0  0  0  0  0  0  0  0  0  0
   -2.7614    1.9067    0.4744 C   0  0  0  0  0  0  0  0  0  0  0  0
   -0.8264   -0.6449   -1.8545 H   0  0  0  0  0  0  0  0  0  0  0  0
    0.4661    1.4821   -1.4968 H   0  0  0  0  0  0  0  0  0  0  0  0
    1.2137   -2.0186    0.8190 H   0  0  0  0  0  0  0  0  0  0  0  0
    2.6366    2.4132   -0.7960 H   0  0  0  0  0  0  0  0  0  0  0  0
    3.3822   -1.0887    1.5311 H   0  0  0  0  0  0  0  0  0  0  0  0
    4.0979    1.1318    0.7248 H   0  0  0  0  0  0  0  0  0  0  0  0
   -1.3035   -2.4193    0.1780 H   0  0  0  0  0  0  0  0  0  0  0  0
   -2.1946    2.4323    1.2421 H   0  0  0  0  0  0  0  0  0  0  0  0
   -3.2057    2.6110   -0.2230 H   0  0  0  0  0  0  0  0  0  0  0  0
   -3.5212    1.2788    0.9398 H   0  0  0  0  0  0  0  0  0  0  0  0
  1  4  1  0  0  0  0
  4  5  1  0  0  0  0
  5  6  4  0  0  0  0
  5  7  4  0  0  0  0
  2  8  1  0  0  0  0
  3  8  2  0  0  0  0
  4  8  1  0  0  0  0
  6  9  4  0  0  0  0
  7 10  4  0  0  0  0
  9 11  4  0  0  0  0
 10 11  4  0  0  0  0
  2 12  1  0  0  0  0
  4 13  1  0  0  0  0
  6 14  1  0  0  0  0
  7 15  1  0  0  0  0
  9 16  1  0  0  0  0
 10 17  1  0  0  0  0
 11 18  1  0  0  0  0
  1 19  1  0  0  0  0
 12 20  1  0  0  0  0
 12 21  1  0  0  0  0
 12 22  1  0  0  0  0
M  END
