  360
Geometry Step: 348
    C     15.25720780      8.48585178      1.61199763      3.86590279
    C     15.41059957      6.57294223      2.58838518      4.00075212
    H     15.78289830      5.82317491      3.25754138      0.96285069
    C     15.51183862      9.89425337      1.21632578      4.13586250
    N     15.93103159      7.84024575      2.56991793      5.18053005
   Zn      0.42585544      8.38556761      3.79433824      1.77404456
    C      8.94419016      1.85171678     14.32355440      3.86493136
    C      6.99442867      1.76360850     13.41752971      4.00512055
    H      6.21300668      1.42468706     12.76474429      0.96934337
    C     10.35694845      1.54636112     14.66916481      4.12367289
    N      8.24816900      1.21396631     13.37765253      5.18026260
   Zn      8.74710914     16.69433062     12.17129568      1.78225387
    C      2.58523463      8.18262304      1.85741463      3.85701752
    C      3.13312765      9.64898338      3.32731960      4.00099237
    H      3.05578137     10.26614156      4.20393961      0.99992443
    C      1.85879230      7.06941746      1.19191995      4.11452704
    H      1.10902311      7.45726517      0.50419905      0.93072824
    H      1.35563358      6.46156566      1.94288147      0.92539332
    H      2.55963951      6.44946552      0.63708208      0.92901870
    N      2.15941877      8.75906239      2.97977023      5.17876134
    C      8.61017559     14.68308494     14.46013843      3.86948019
    C     10.46568783     14.58876130     13.38100035      4.00676825
    H     11.20957116     14.85085998     12.65636596      0.95584924
    C      7.27974882     15.16157117     14.93118650      4.12124130
    H      7.32380773     16.23412814     15.12290445      0.92504387
    H      6.51383267     14.99505289     14.17174300      0.93031662
    H      7.00092579     14.64316081     15.85127745      0.93760665
    N      9.25948046     15.22866611     13.42921469      5.18012568
    C     15.21840845      7.94674278     14.41018856      3.86177948
    C     15.30345761      9.84731902     13.41001461      4.00230662
    H     15.62766772     10.59239707     12.70928406      0.97482157
    C     15.52063982      6.54984090     14.81783412      4.11783596
    N     15.84323674      8.58856069     13.42073276      5.19444793
   Zn      0.47110753      8.11963355     12.36337406      1.79124729
    C      8.82719323      1.79341928      1.51112214      3.86457221
    C     10.75180006      1.98260123      2.45596113      4.00204156
    H     11.55827265      1.75928393      3.12671931      0.96227203
    C      7.46637250      1.30249004      1.15825911      4.11962991
    N      9.58999718      1.25909704      2.46786894      5.17957139
   Zn      9.19843155     16.77019004      3.72999137      1.77755500
    C      2.28356930      8.32384775     14.78247918      3.86684000
    C      2.43273615      6.41873448     13.77080172      4.01932890
    H      2.17588211      5.62867134     13.08652233      0.95023662
    C      1.77066729      9.64554610     15.22194423      4.10739939
    H      1.54418239      9.63832699     16.28990333      0.92851090
    H      0.86943191      9.89325391     14.66667207      0.92448440
    H      2.50421285     10.44128667     15.09234496      0.95955823
    N      1.76487189      7.61575756     13.77135676      5.20161462
    C      9.08157861     14.72045790      1.50051688      3.85864844
    C      8.06654761     14.05013557      3.27430474      4.00187753
    H      7.69152776     14.06809396      4.27856576      0.94986785
    C      9.91853718     15.54710481      0.59381160      4.12861038
    H      9.30010536     16.11205292     -0.10133024      0.93303132
    H     10.50726448     16.24649833      1.18165777      0.91690534
    H     10.58114559     14.90522959      0.01851775      0.92059560
    N      8.75048415     15.10023529      2.73643161      5.18625937
    C      2.64975296     14.51159933      8.00227253      3.85160285
    C      4.12886648     13.73736616      6.65722996      4.00603136
    H      5.03160732     13.69628068      6.07776195      0.99316614
    C      1.97446524     15.37579763      9.00545296      4.12598857
    N      3.83628894     14.79407380      7.46901221      5.18142754
   Zn      4.70178313     16.55278186      7.38451837      1.77408081
    C     15.55197613     14.61271104      7.99763387      3.86634892
    C     15.28894389     13.38639777      9.74339511      3.99756527
    H     15.48730725     12.60909562     10.45424160      0.96847623
    C     16.09008211     15.18689760      6.73498657      4.12612533
    H     17.13058494     14.90080998      6.60190290      0.93275853
    H     15.51952581     14.83634858      5.87093927      0.94035603
    H     16.01218873     16.27186433      6.76526952      0.93022213
    N     16.08569626     13.57492446      8.64691979      5.19924144
   Zn      0.66813873     12.33330348      8.23797195      1.78279893
    C     15.37247681      1.74346363      8.22056574      3.86611093
    C     14.20111555      1.85964533      6.42062973      4.00363024
    H     13.44572654      1.60208187      5.70502508      0.96723623
    C     15.90724504      1.27440697      9.52542135      4.11821969
    N     14.34534289      1.16599647      7.59224851      5.18720169
   Zn     13.26537520     16.57205682      8.10491266      1.77921009
    C      2.47302150      1.69812876      7.46037926      3.86275370
    C      2.71004926      2.59269074      9.40446553      4.00358847
    H      2.51573464      3.25406896     10.22833081      0.97255402
    C      1.93116950      1.37561982      6.11588941      4.11816083
    H      1.20168421      0.56786571      6.18563855      0.94582134
    H      1.44346974      2.24623450      5.68166092      0.93185974
    H      2.72635510      1.02535772      5.46162683      0.93815259
    N      1.96910255      2.65020260      8.25557016      5.18332391
   Zn      0.46581784      3.90214114      7.94463132      1.78031047
    C      3.64064443      1.60998423      9.26350949      4.00863417
    H      4.39072209      1.26563399      9.94615562      0.96252488
    N      3.49140511      1.04628940      8.02570247      5.16939383
    C      3.09493099     12.85690543      6.71210449      4.00991182
    H      3.01364584     11.87145349      6.29186816      0.98478743
    H      1.51750140     16.23413867      8.51532979      0.93041063
    H      1.20494460     14.80717229      9.52386238      0.92995288
    H      2.70681289     15.74205971      9.72370786      0.93438203
    N      2.15419802     13.35337073      7.56948420      5.17971061
    C     14.29883626     14.31868598      9.72298525      4.00347598
    H     13.49870729     14.49305880     10.41501680      0.96869239
    N     14.46632410     15.09728157      8.61192921      5.17852264
    C     15.14358328      2.84019111      6.38528013      4.00131288
    H     15.34476661      3.57935805      5.63528829      0.96719325
    H     16.84476716      0.73987645      9.37266675      0.94297315
    H     16.10601542      2.11823485     10.18349945      0.93332574
    H     15.19684395      0.59926224      9.99827514      0.93085929
    N     15.88348067      2.76730170      7.53310320      5.17979890
    C      6.97799669      2.72231297     14.38360534      4.00339549
    H      6.17907137      3.35833014     14.71148244      0.97069316
    H     10.43842169      1.32907224     15.73304370      0.93408227
    H     10.99778066      2.40122707     14.45684796      0.93046236
    H     10.70007803      0.68650739     14.09858972      0.92734954
    N      8.22049345      2.77962150     14.95441952      5.19047887
   Zn      8.74716809      4.00699200     16.45395832      1.77484982
    C      7.99844780     13.06257791      2.33656712      4.03802595
    H      7.63756269     12.05032724      2.43693704      0.97505009
    N      8.63267503     13.49844689      1.20127963      5.20233974
   Zn      8.88608857     12.41100163     16.49988786      1.78517727
    C     14.36430929      9.91890197     14.39102733      4.00234173
    H     13.74847093     10.74360757     14.69186270      0.97090906
    H     15.88010997      6.53488436     15.84649639      0.93697437
    H     14.62454150      5.93252911     14.76542696      0.93150579
    H     16.28774171      6.13351864     14.16861054      0.93261132
    N     14.30520421      8.70521088     15.01931575      5.18800164
   Zn     13.11346379      8.21067592     16.52498103      1.77322101
    C     10.65340149      2.93323744      1.48789143      4.00228008
    H     11.35866334      3.67351495      1.16774692      0.96129346
    H      7.28604598      0.32580698      1.60890409      0.93138710
    H      7.36895690      1.24021545      0.07450398      0.94001893
    H      6.70604704      1.99575849      1.51988614      0.93661486
    N      9.42869497      2.81301469      0.89138010      5.17856116
    C      3.35285272      6.45018970     14.77307240      4.00330815
    H      4.01800382      5.68642657     15.12551104      0.95597614
    N      3.27132787      7.66545915     15.39818552      5.21247158
   Zn      4.61986325      8.27563527     16.71205158      1.77519951
    C     10.50627371     13.67076629     14.38343438      4.00210467
    H     11.29652827     13.00786821     14.67638227      0.95939796
    N      9.32175297     13.72751326     15.06674875      5.18478154
    C     14.43506890      6.49541818      1.64497602      4.00382531
    H     13.81719245      5.66833978      1.35590957      0.96535554
    H     15.18989436     10.04405203      0.18842320      0.92656787
    H     14.95830024     10.58771485      1.85079043      0.94251035
    H     16.57181706     10.12974012      1.30188972      0.91045190
    N     14.33658763      7.71170438      1.02738044      5.17348422
    C      4.12908164      9.56907859      2.40532664      3.99856989
    H      5.07780133     10.07214441      2.36838812      0.98708342
    N      3.77729335      8.64250739      1.46572484      5.18918780
    C      6.77300314     16.87293904      9.89545402      3.86620880
    C      6.61455005     14.99922135     10.94569012      4.02110352
    H      6.80097155     14.22646979     11.68336852      0.98734417
    C      7.23182191      1.25376716      9.54896971      4.12519265
    H      8.32014441      1.28478676      9.51376540      0.93366096
    H      6.90216240      1.96952146     10.30239733      0.93804170
    H      6.82335529      1.54125799      8.58516419      0.92288476
    N      7.26856735     16.20172554     10.94849451      5.17397762
    C      0.46676817     10.11201465      6.19908064      3.85854916
    C     15.82667808     10.69453055      4.91547148      4.01502714
    H     15.11551552     10.62402237      4.11323748      0.94985765
    C      1.57365118      9.31689329      6.78469802      4.11942259
    N     16.82826168      9.77492634      5.06838010      5.19883372
    C     10.94267037     16.42276044     10.09357991      3.86504476
    C     11.02878263      1.32075759     11.12290692      4.00321698
    H     10.73787484      2.10030378     11.79878297      0.96272492
    C     10.49630994     15.07290425      9.65401805      4.12657398
    H      9.41106879     14.99754873      9.71996390      0.92820046
    H     10.92517504     14.29208174     10.28445309      0.93728002
    H     10.82037253     14.90146926      8.62934906      0.92713439
    N     10.32451831      0.14976394     11.03759514      5.17932214
    C      0.18713243      6.13701932      5.89783142      3.86619331
    C      2.06503450      6.11175323      4.85538520      4.00067014
    H      2.82498937      6.40205543      4.15710902      0.97666314
    C     15.80649265      6.51924565      6.32624841      4.11966579
    H     15.74423402      7.59878357      6.45253542      0.93899263
    H     15.07482915      6.23186267      5.57175476      0.93526028
    H     15.56140422      6.02526798      7.26431472      0.92973944
    N      0.85482748      6.74914539      4.91592701      5.19085030
    C      7.27112718     16.75825339      5.99695522      3.86173675
    C      7.04096780      1.49851063      4.74585538      3.99945564
    H      7.26011252      2.19672766      3.96224179      0.97938918
    C      7.84222980     15.53799250      6.63098478      4.11178802
    H      8.12810217     15.75525498      7.66098026      0.93985783
    H      8.72108258     15.20481933      6.08276912      0.93956870
    H      7.09790195     14.74304525      6.66108565      0.94556396
    N      7.80447526      0.37761226      4.93572575      5.18052870
    C      0.34233198     10.21687998     10.33398235      3.85313357
    C      1.75290715     10.77654322     11.85400450      4.01033099
    H      2.32460583     10.71580380     12.75964261      0.99280464
    C     16.26366811      9.47209967      9.61917300      4.12279694
    N      0.90456013      9.77792870     11.46136698      5.19310261
    C     11.21928273     16.80432059      5.94431447      3.86203674
    C     11.53027795     15.12237885      4.63861079      4.00139567
    H     11.39683386     14.48077475      3.78886555      0.97246914
    C     10.65079710      1.05859418      6.52281252      4.12277797
    N     10.79252021     16.26396945      4.79946231      5.18455578
    C      0.72957690      6.00259177     10.14251193      3.86952485
    C     15.83511730      5.95750882     11.17912179      4.00225580
    H     15.07867574      6.23308063     11.88675448      0.95913904
    C      2.10328015      6.37014604      9.71191785      4.12399494
    N     17.05235554      6.58552149     11.14570330      5.18488191
    C     10.84804952      6.19890310     16.65678173      3.86152994
    C     11.69361488      6.31080232     14.68423769      3.99727044
    H     12.33354574      6.64756807     13.89133236      0.97458998
    C     10.57501713      6.49365410      1.09633912      4.11683688
    N     11.80491059      6.80851860     15.95298035      5.18270041
    C      6.55974914      5.93212830     16.37925179      3.85385103
    C      6.57601475      5.01284300      1.33471501      4.00102931
    H      6.86977955      4.34537576      2.12048537      0.97153407
    C      6.89902651      6.20981273     14.96461210      4.13276853
    H      7.40415810      7.16906196     14.88669392      0.91615416
    H      7.55947324      5.43804096     14.58040909      0.92548010
    H      6.00622315      6.26817837     14.34125237      0.95477013
    N      7.15932844      4.97340992      0.09743388      5.19136141
    C      6.89548883     10.15105872     16.61149581      3.86418546
    C      5.41433241     10.65701183     15.14094636      3.99510217
    H      4.52273674     10.57640917     14.55052797      0.99295480
    C      7.68002230      9.36384694      0.60238015      4.10985738
    N      5.75263516      9.72170443     16.07507622      5.18472344
    C     11.10607539     10.38998198     16.33026641      3.85082821
    C     10.97727660     11.28264906      1.29764416      4.00431416
    H     10.64151108     11.94790525      2.07110546      0.96869359
    C     10.82225307     10.04750853     14.91758345      4.13189341
    H     10.04424871      9.28639656     14.88359727      0.91939823
    H     10.43284794     10.90383018     14.37124495      0.94243240
    H     11.70861958      9.65584968     14.42663991      0.92746576
    N     10.46221558     11.34093260      0.02585973      5.18989469
    C     11.91842447     10.30286817      1.33124507      4.00011353
    H     12.53312109      9.95761818      2.13926697      0.96425276
    N     12.00007112      9.74236770      0.08621272      5.18655140
    C     10.68084563      5.40272046     14.66941477      3.99505790
    H     10.28779086      4.81383090     13.86265425      0.98052898
    H     10.46881338      7.56892029      1.23270563      0.93991265
    H      9.65973260      5.99582342      1.40869327      0.93373010
    H     11.39818388      6.15914926      1.72674546      0.93293165
    N     10.14975079      5.32427961     15.92796021      5.18982695
    C      5.63675149      5.99519254      1.33043587      3.99648334
    H      4.95769035      6.30304959      2.10099700      0.96797861
    N      5.63130994      6.58646941      0.09271682      5.21367665
    C      6.35056748     11.64172177     15.15508764      4.00638612
    H      6.43058779     12.52624782     14.55131832      0.97427943
    H      8.26256689      8.62935215      0.04540237      0.91421648
    H      8.36570024     10.00753098      1.14817225      0.92857591
    H      7.02096642      8.83118115      1.28622860      0.93813998
    N      7.29049330     11.32287793     16.10064970      5.20727912
    C     15.88498183     11.56631751      5.96079247      4.01514659
    H     15.22646571     12.37078551      6.23247947      0.94618383
    H      1.17176375      8.44128111      7.29557597      0.94053878
    H      2.12492795      9.90905232      7.50984241      0.92819973
    H      2.24232631      8.95806577      6.00535739      0.93315841
    N     16.92546088     11.19498519      6.77015604      5.20338595
    C     15.81211354      5.01328053     10.20064488      4.00226170
    H     15.03313629      4.33598443      9.91239282      0.96380890
    H      2.25654806      6.05017628      8.68289258      0.92379055
    H      2.85636171      5.88044985     10.33724016      0.94008332
    H      2.25538737      7.44480979      9.77974483      0.94051720
    N     17.01170018      5.04050001      9.54522077      5.18299590
    C      6.07213824      1.52280339      5.69789431      3.99382685
    H      5.29604339      2.24008574      5.87462713      0.96048133
    N      6.22553181      0.42416739      6.49247053      5.16611685
    C      1.67420757     11.78640537     10.94864100      4.00026994
    H      2.19343724     12.72358004     10.91647855      0.96747571
    H     16.67468104      8.59054901      9.13102273      0.93708918
    H     15.80749934     10.11280478      8.86753044      0.92805450
    H     15.50335216      9.14414932     10.32861021      0.92598666
    N      0.77462476     11.42812449      9.98477335      5.17923553
    C     12.38296430     15.01324586      5.69390395      4.00076534
    H     13.10407251     14.25138808      5.92226736      0.97570926
    H      9.73009514      0.83338604      7.06001553      0.93523216
    H     11.35887185      1.50657026      7.21546711      0.92504259
    H     10.41101410      1.76422634      5.72970657      0.93039820
    N     12.18407440     16.08515817      6.52010624      5.18175839
    C      2.08518386      5.13107034      5.79771057      4.00307773
    H      2.85603748      4.42754622      6.04477127      0.97060442
    N      0.88673031      5.14667624      6.45858103      5.18902392
    C      5.74716384     14.99057596      9.89115405      4.00581104
    H      5.06974480     14.21273816      9.58921950      0.96870512
    N      5.84892773     16.17939603      9.22768797      5.20327877
    C     12.05430694      1.26816750     10.23086273      4.00244989
    H     12.81552616      1.98957005     10.00819821      0.96379188
    N     11.99829128      0.06682143      9.57892184      5.17723374
    C      5.98479878      7.98824823      5.50676120      4.01836670
    C      6.67385446      7.19012584      4.62308560      4.04555406
    C      7.54102212      6.18828849      5.07528169      4.02722746
    C      7.75522297      5.96681233      6.41872179      4.05260558
    C      7.07464262      6.77700721      7.32179585      3.94788800
    C      6.18464285      7.78471634      6.87316808      4.03168259
    N      7.08129973      6.79940919      8.68589613      5.11050722
    C      6.24966572      7.80711506      9.12627062      4.04568782
    C      5.67216449      8.41865906      8.05064610      3.88851653
    H      5.30655496      8.75748607      5.16810228      0.96756614
    H      6.54473249      7.32764555      3.55961024      0.96195793
    H      8.05287329      5.57637275      4.34770558      0.95722471
    H      8.42845040      5.19716316      6.76319836      0.95103728
    H      7.69154862      6.27199613      9.28963391      0.81330275
    H      6.14306872      8.01739894     10.17275202      0.96212494
    O      4.76406646      9.44247356      7.99011442      6.47339470
    S      4.23023519     10.19683429      9.31086305      4.26860838
    O      3.26132451     11.10062227      8.78561160      6.68349329
    O      5.40094413     10.85131704      9.88706837      6.82527978
    O      3.69625387      9.17043996     10.19110188      6.81205274
    K      4.53134186      8.47651043     12.05551496      0.19418539
    C     10.60960602      6.39569323     10.72518453      4.02117383
    C     11.25639299      5.65457769      9.76279206      4.04490909
    C     11.22815306      6.03029723      8.41490331      4.03008949
    C     10.55618873      7.15870910      7.99572396      4.05309900
    C      9.89406631      7.91358352      8.95950712      3.94979817
    C      9.91002585      7.53571018     10.32559823      4.03481284
    N      9.16857026      9.06312473      8.85263768      5.10767007
    C      8.69427568      9.41504299     10.09841965      4.04625722
    C      9.13114541      8.51505805     11.02756715      3.88570274
    H     10.63825838      6.12365019     11.76790460      0.95571539
    H     11.80060931      4.76660819     10.04606004      0.95648293
    H     11.75138608      5.42361777      7.69078216      0.95441965
    H     10.53670471      7.44819457      6.95612800      0.95916080
    H      8.87733626      9.49963698      7.99283998      0.81982160
    H      8.06838309     10.27647601     10.22480928      0.95963790
    O      8.94739435      8.46186455     12.38448835      6.47626401
    S      7.80334162      9.25650208     13.20396265      4.24510912
    O      8.11317114      8.92628796     14.55454617      6.69826250
    O      6.52627376      8.71760538     12.73437693      6.83187303
    O      7.94993721     10.66180768     12.85602126      6.81486429
    K      6.74249327     11.57872455     11.32529184      0.22114883
    C      1.00625861     14.01829109     13.97801889      4.02214664
    C      0.92887618     14.78753214     12.83832812      4.04511204
    C      1.62650300     -0.99496673     12.73134930      4.03149821
    C      2.43282516     -0.53444411     13.75087219      4.05240352
    C      2.51275850     15.69286698     14.91042759      3.95229145
    C      1.79308444     14.47682329     15.03642961      4.03054613
    N      3.21673244     15.88694200     16.06434618      5.10892048
    C      2.91921391     14.87359041     16.95087373      4.04982995
    C      2.06467206     13.98928134     16.35782916      3.89628540
    H     17.46333945     13.08373015     14.06865434      0.96409185
    H     17.31401392     14.45624997     12.00731813      0.95773025
    H      1.52967212     -0.41326170     11.82696531      0.95637393
    H      2.97313071      0.39605694     13.66054594      0.96056683
    H      3.65098974     -0.24244835     16.35273929      0.81683387
    H      3.28362544     14.89018538      0.96736801      0.95797861
    O      1.51197475     12.84513574     16.87652858      6.49744585
    S      2.29439628     12.05292731      1.06736579      4.18672236
    O      1.52334004     10.85686784      1.19582142      6.72982412
    O      2.21957925     12.89643897      2.24355778      6.84564007
    O      3.64153759     11.85606628      0.56166932      6.83690387
    K      5.33290021     12.90633788      1.26965839      0.24560832
    C      2.80036679      1.93887044     17.91159772      4.02235232
    C      2.46948203      2.65054653     16.78047361      4.04758828
    C     18.37579446      2.27799720     15.97850508      4.03319393
    C     17.59220781      1.18742983     16.28838125      4.05150316
    C     17.91304838      0.46167678     17.43079520      3.95681324
    C      2.02450933      0.82678832     18.24724599      4.03428365
    N     17.31932247     -0.62664105     17.99306595      5.08696927
    C      1.02249563     -0.98877224      2.13214786      4.04135861
    C      2.06487616     -0.12843543      2.32333296      3.88728481
    H      3.62753383      2.22891291      1.55032625      0.96232838
    H      3.04636718      3.52210913     16.50872951      0.96839418
    H     18.14333395      2.86772934     15.10471681      0.96117066
    H     16.75359934      0.90576793     15.67025657      0.95988619
    H     16.58628645     15.80864770     17.58455618      0.82458587
    H      0.73501399     15.14794414      2.71334249      0.94816597
    O      3.00856833     -0.09610064      3.31455209      6.49873601
    S      3.45829219     -1.42574760      4.13737061      4.17561552
    O      4.31540881     -0.83826067      5.13385622      6.68668639
    O      4.15379281     14.70597174      3.19848881      6.79197329
    O      2.24096712     -1.99575287      4.67661964      6.81772312
    K      1.49358192     13.06541386      4.19709830      0.17207951
